
**** 06/16/21 13:38:08 ******* PSpice 17.4.0 (Nov 2018) ******* ID# 0 ********

 ** Profile: "SCHEMATIC1-transient"  [ C:\Users\a0232292\Desktop\Models\OPA2991\PSpice_nano\OPA2991-PSpiceFiles\SCHEMATIC1\transient.


 ****     CIRCUIT DESCRIPTION


******************************************************************************




** Creating circuit file "transient.cir" 
** WARNING: THIS AUTOMATICALLY GENERATED FILE MAY BE OVERWRITTEN BY SUBSEQUENT SIMULATIONS

*Libraries: 
* Profile Libraries :
* Local Libraries :
.LIB "C:/Users/a0232292/Desktop/Models/Fixed_PSpice/Round1/name_reverted/OPA2991.LIB" 
* From [PSPICE NETLIST] section of C:\SPB_Data\cdssetup\OrCAD_PSpiceTIPSpice_Install\17.4.0\PSpice.ini file:
.lib "nom_pspti.lib" 
.lib "nom.lib" 

*Analysis directives: 
.TRAN  0 1m 0 
.OPTIONS ADVCONV
.OPTIONS FILEMODELSEARCH
.PROBE64 N([VO])
.PROBE64 N([VI])
.INC "..\SCHEMATIC1.net" 



**** INCLUDING SCHEMATIC1.net ****
* source OPA2991
V_V1         VCC 0 20
V_V2         0 VEE 20
X_U1         VI VO VCC VEE VO OPA2991
V_V3         VI 0  
+SIN 0 1 1k 0 0 0

**** RESUMING transient.cir ****
.END

**** 06/16/21 13:38:08 ******* PSpice 17.4.0 (Nov 2018) ******* ID# 0 ********

 ** Profile: "SCHEMATIC1-transient"  [ C:\Users\a0232292\Desktop\Models\OPA2991\PSpice_nano\OPA2991-PSpiceFiles\SCHEMATIC1\transient.


 ****     Diode MODEL PARAMETERS


******************************************************************************




               X_U1.XIn11.DVNF X_U1.Xi_n.DVNF  X_U1.Xe_n.DVN   
          IS  100.000000E-18  100.000000E-18  100.000000E-18 
          KF  316.227800E-15  316.227800E-15    3.162278E-12 


**** 06/16/21 13:38:08 ******* PSpice 17.4.0 (Nov 2018) ******* ID# 0 ********

 ** Profile: "SCHEMATIC1-transient"  [ C:\Users\a0232292\Desktop\Models\OPA2991\PSpice_nano\OPA2991-PSpiceFiles\SCHEMATIC1\transient.


 ****     Resistor MODEL PARAMETERS


******************************************************************************




               X_U1.R_NOISELESS 
  T_Measured   27            
   T_Current -273.15         
           R    1            


**** 06/16/21 13:38:08 ******* PSpice 17.4.0 (Nov 2018) ******* ID# 0 ********

 ** Profile: "SCHEMATIC1-transient"  [ C:\Users\a0232292\Desktop\Models\OPA2991\PSpice_nano\OPA2991-PSpiceFiles\SCHEMATIC1\transient.


 ****     Voltage Controlled Switch MODEL PARAMETERS


******************************************************************************




               X_U1.BB_SW      X_U1.ESD_SW     X_U1.OL_SW      X_U1.OR_SW      
         RON   50              50               1.000000E-03     .01         
        ROFF    1.000000E+12    1.000000E+12    1.000000E+09    1.000000E+09 
         VON     .7              .25             .9             1.000000E-03 
        VOFF    0               0                .8             0            


               X_U1.S_VSWITCH_1 
         RON   50            
        ROFF    1.000000E+12 
         VON     .5          
        VOFF     .1          


               X_U1.S_VSWITCH_2 
         RON   50            
        ROFF    1.000000E+12 
         VON     .5          
        VOFF     .1          


               X_U1.S_VSWITCH_3 
         RON   50            
        ROFF    1.000000E+12 
         VON     .5          
        VOFF     .1          


               X_U1.S_VSWITCH_4 
         RON   50            
        ROFF    1.000000E+12 
         VON     .5          
        VOFF     .1          


               X_U1.S_VSWITCH_5 
         RON     .01         
        ROFF    1.000000E+12 
         VON     .01         
        VOFF    0            


               X_U1.S_VSWITCH_6 
         RON     .01         
        ROFF    1.000000E+12 
         VON     .01         
        VOFF    0            


               X_U1.S_VSWITCH_7 
         RON    1.000000E-03 
        ROFF    1.000000E+12 
         VON     .5          
        VOFF     .1          


               X_U1.S_VSWITCH_8 
         RON   50            
        ROFF    1.000000E+12 
         VON     .5          
        VOFF     .1          


               X_U1.S_VSWITCH_9 
         RON   50            
        ROFF    1.000000E+12 
         VON     .5          
        VOFF     .1          


**** 06/16/21 13:38:08 ******* PSpice 17.4.0 (Nov 2018) ******* ID# 0 ********

 ** Profile: "SCHEMATIC1-transient"  [ C:\Users\a0232292\Desktop\Models\OPA2991\PSpice_nano\OPA2991-PSpiceFiles\SCHEMATIC1\transient.


 ****     INITIAL TRANSIENT SOLUTION       TEMPERATURE =   27.000 DEG C


******************************************************************************



 NODE   VOLTAGE     NODE   VOLTAGE     NODE   VOLTAGE     NODE   VOLTAGE


(   VI)    0.0000  (   VO) 126.4E-06  (  VCC)   20.0000  (  VEE)  -20.0000      

(X_U1.21)     .0014                   (X_U1.22)     .0014                       

(X_U1.23)     .0014                   (X_U1.24)     .0014                       

(X_U1.25) 125.0E-06                   (X_U1.26)-100.0E-15                       

(X_U1.27)-24.00E-12                   (X_U1.28)-24.00E-12                       

(X_U1.29)-24.00E-12                   (X_U1.30)-24.00E-12                       

(X_U1.31)   12.0000                   (X_U1.32)   12.0000                       

(X_U1.33)  -12.0000                   (X_U1.34)  -12.0000                       

(X_U1.35)     .0014                   (X_U1.36) 347.6E-09                       

(X_U1.37) 142.2E-06                   (X_U1.38) 1.657E-09                       

(X_U1.39) 126.4E-06                   (X_U1.40) 126.4E-06                       

(X_U1.41) 163.6E-06                   (X_U1.42) 629.9E-06                       

(X_U1.43) 126.4E-06                   (X_U1.44)-724.0E-09                       

(X_U1.45)  -36.2000                   (X_U1.46) 724.0E-09                       

(X_U1.47)   36.2000                   (X_U1.48)-121.1E-21                       

(X_U1.49)-6.053E-15                   (X_U1.50)   80.0000                       

(X_U1.51)  -80.0000                   (X_U1.52)-12.62E-30                       

(X_U1.53)-12.62E-30                   (X_U1.54)   12.0000                       

(X_U1.55)  -12.0000                   (X_U1.56)  110.0000                       

(X_U1.57) -110.0000                   (X_U1.58) 142.2E-06                       

(X_U1.59)-12.62E-30                   (X_U1.60)-12.62E-30                       

(X_U1.61)-12.62E-30                   (X_U1.62)-12.62E-30                       

(X_U1.63)-12.62E-30                   (X_U1.64)-12.62E-30                       

(X_U1.65)   19.9900                   (X_U1.66)  -19.9900                       

(X_U1.67)   19.9900                   (X_U1.68)  -19.9900                       

(X_U1.69)-12.62E-30                   (X_U1.70)-12.62E-30                       

(X_U1.71)-12.62E-30                   (X_U1.72)-12.62E-30                       

(X_U1.73)-12.62E-30                   (X_U1.74) 1.363E-12                       

(X_U1.75) 126.4E-06                   (X_U1.76) 142.2E-06                       

(X_U1.77) 126.4E-06                   (X_U1.78)  -20.2000                       

(X_U1.79)   20.2000                   (X_U1.80) 126.4E-06                       

(X_U1.81)-12.62E-30                   (X_U1.82)  -20.0000                       

(X_U1.83)   20.0000                   (X_U1.84) 125.0E-06                       

(X_U1.85) 125.0E-06                   (X_U1.MID)-12.62E-30                      

(X_U1.ESDn) 126.4E-06                 (X_U1.ESDp)-100.0E-15                     

(X_U1.VCLP) 142.2E-06                 (X_U1.CLAMP) 142.2E-06                    

(X_U1.SW_OL)-12.62E-30                (X_U1.VCC_B)   20.0000                    

(X_U1.VEE_B)  -20.0000                (X_U1.VIMON) 1.365E-12                    

(X_U1.VOUT_S) 126.4E-06               (X_U1.VSENSE) 142.2E-06                   

(X_U1.Xe_n.3)    0.0000               (X_U1.Xe_n.4)    0.0000                   

(X_U1.Xe_n.5)    0.0000               (X_U1.Xe_n.6)    0.0000                   

(X_U1.Xe_n.7)     .8338               (X_U1.Xe_n.8)     .8338                   

(X_U1.Xi_n.3)    0.0000               (X_U1.Xi_n.4)    0.0000                   

(X_U1.Xi_n.5)    0.0000               (X_U1.Xi_n.6)    0.0000                   

(X_U1.Xi_n.7)     .8338               (X_U1.Xi_n.8)     .8338                   

(X_U1.VCC_CLP)   19.9900              (X_U1.VEE_CLP)  -19.9900                  

(X_U1.XIn11.3)    0.0000              (X_U1.XIn11.4)    0.0000                  

(X_U1.XIn11.5)    0.0000              (X_U1.XIn11.6)    0.0000                  

(X_U1.XIn11.7)     .8338              (X_U1.XIn11.8)     .8338                  

(X_U1.CL_CLAMP) 142.2E-06             (X_U1.CLAW_CLAMP) 142.2E-06           




    VOLTAGE SOURCE CURRENTS
    NAME         CURRENT

    V_V1        -5.600E-04
    V_V2        -5.600E-04
    V_V3        -1.000E-11
    X_U1.VS1     1.652E-17
    X_U1.V_GRp  -1.100E-10
    X_U1.V_GRn   1.100E-10
    X_U1.V_ISCp  -8.000E-11
    X_U1.V_ISCn   8.000E-11
    X_U1.V_ORn   0.000E+00
    X_U1.V11     2.400E-11
    X_U1.V_ORp   0.000E+00
    X_U1.V12    -2.400E-11
    X_U1.V4      1.363E-15
    X_U1.VCM_MIN   2.021E-11
    X_U1.VCM_MAX  -2.021E-11

    TOTAL POWER DISSIPATION   2.24E-02  WATTS



          JOB CONCLUDED

**** 06/16/21 13:38:08 ******* PSpice 17.4.0 (Nov 2018) ******* ID# 0 ********

 ** Profile: "SCHEMATIC1-transient"  [ C:\Users\a0232292\Desktop\Models\OPA2991\PSpice_nano\OPA2991-PSpiceFiles\SCHEMATIC1\transient.


 ****     JOB STATISTICS SUMMARY


******************************************************************************



  License check-out time            =        2.92
  Total job time (using Solver 1)   =        1.14
